// -*- C++ -*-
// File generated by PyFoam - sorry for the ugliness

FoamFile
{
 version 2.0;
 format ascii; 	
 class dictionary; 	
 location "constant"; 	
 object radiationProperties; 	
}

radiationModel fvDOM; 	

solverFreq 50; 	

fvDOMCoeffs
{
  nPhi 3;
  nTheta 4; 	
  convergence 0.001; 	
  maxIter 5; 	
} 	

absorptionEmissionModel none; 	

constantAbsorptionEmissionCoeffs
{
  absorptivity    absorptivity    [ 0 -1 0 0 0 0 0 ] 0.01;
  emissivity      emissivity      [ 0 -1 0 0 0 0 0 ] 0.01;	
  E E       [ 1 -1 -3 0 0 0 0 ]       0 ; 	
} 	

scatterModel none; 	


