// -*- C++ -*-
// File generated by PyFoam - sorry for the ugliness

FoamFile
{
 version 2.0;
 format ascii; 	
 class dictionary; 	
 object fvSolution; 	
}

solvers
{
  h
  {
    solver PCG;
    preconditioner DIC; 	
    tolerance 1e-06; 	
    relTol 0.1; 	
  }
}

SIMPLE
{
  nNonOrthogonalCorrectors 0;
} 	

relaxationFactors
{
  fields
  {
  }
  equations
  {
    h 0.99;
  } 	
} 	

